
OS:Version,
  {9a9f14d9-99c0-414e-90f3-51c3bf6fd5cd}, !- Handle
  3.2.0;                                  !- Version Identifier

OS:Site,
  {ccb1cdb4-b179-45ac-a44f-937ee3857b77}, !- Handle
  Greenville-Spartanburg Intl AP,         !- Name
  34.9,                                   !- Latitude {deg}
  -82.217,                                !- Longitude {deg}
  -5,                                     !- Time Zone {hr}
  292,                                    !- Elevation {m}
  ;                                       !- Terrain

OS:YearDescription,
  {9c60a603-2347-4873-95e2-802d800caf61}, !- Handle
  2022,                                   !- Calendar Year
  ,                                       !- Day of Week for Start Day
  ;                                       !- Is Leap Year

OS:ClimateZones,
  {4e01fc62-1fd0-40d7-8838-5f75d145029b}, !- Handle
  ASHRAE,                                 !- Climate Zone Institution Name 1
  ANSI/ASHRAE Standard 169,               !- Climate Zone Document Name 1
  2006,                                   !- Climate Zone Document Year 1
  3A,                                     !- Climate Zone Value 1
  CEC,                                    !- Climate Zone Institution Name 2
  California Climate Zone Descriptions,   !- Climate Zone Document Name 2
  1995,                                   !- Climate Zone Document Year 2
  ;                                       !- Climate Zone Value 2

OS:Building,
  {c83f0f5d-909f-429d-bb30-5d2e639db350}, !- Handle
  Building 1,                             !- Name
  ,                                       !- Building Sector Type
  -0,                                     !- North Axis {deg}
  ,                                       !- Nominal Floor to Floor Height {m}
  ,                                       !- Space Type Name
  ,                                       !- Default Construction Set Name
  ;                                       !- Default Schedule Set Name

OS:Facility,
  {a6845e6a-1d5d-46f2-a3a4-8e9b73a1c7cb}; !- Handle

OS:SimulationControl,
  {7c1aea95-2778-4ee3-abf4-c21a0112df76}; !- Handle

OS:Sizing:Parameters,
  {b6860cd8-d36c-4e42-b438-a99c262d28b7}, !- Handle
  1.25,                                   !- Heating Sizing Factor
  1.15;                                   !- Cooling Sizing Factor

OS:Timestep,
  {a18f2e75-c186-4819-aa69-8ee864375a99}, !- Handle
  6;                                      !- Number of Timesteps per Hour

OS:ShadowCalculation,
  {1b2df601-ec7a-47e1-a8d2-c0b17a58e2db}, !- Handle
  PolygonClipping,                        !- Shading Calculation Method
  ,                                       !- Shading Calculation Update Frequency Method
  20,                                     !- Shading Calculation Update Frequency
  15000,                                  !- Maximum Figures in Shadow Overlap Calculations
  ,                                       !- Polygon Clipping Algorithm
  512,                                    !- Pixel Counting Resolution
  ,                                       !- Sky Diffuse Modeling Algorithm
  No,                                     !- Output External Shading Calculation Results
  No,                                     !- Disable Self-Shading Within Shading Zone Groups
  No;                                     !- Disable Self-Shading From Shading Zone Groups to Other Zones

OS:HeatBalanceAlgorithm,
  {a5b0e8fa-2975-4fd6-a36e-3ac240da7870}, !- Handle
  ConductionTransferFunction,             !- Algorithm
  200;                                    !- Surface Temperature Upper Limit {C}

OS:RunPeriod,
  {0faa44cf-a656-47e7-aab6-d233a06981f4}, !- Handle
  Run Period 1,                           !- Name
  4,                                      !- Begin Month
  1,                                      !- Begin Day of Month
  5,                                      !- End Month
  1,                                      !- End Day of Month
  ,                                       !- Use Weather File Holidays and Special Days
  ,                                       !- Use Weather File Daylight Saving Period
  ,                                       !- Apply Weekend Holiday Rule
  ,                                       !- Use Weather File Rain Indicators
  ,                                       !- Use Weather File Snow Indicators
  ;                                       !- Number of Times Runperiod to be Repeated

OS:LifeCycleCost:Parameters,
  {b985efc0-809f-4fa2-83de-4e62441eebcb}, !- Handle
  FEMP,                                   !- Analysis Type
  ,                                       !- Discounting Convention
  ,                                       !- Inflation Approach
  ,                                       !- Real Discount Rate
  ,                                       !- Nominal Discount Rate
  ,                                       !- Inflation
  ,                                       !- Base Date Month
  ,                                       !- Base Date Year
  ,                                       !- Service Date Month
  ,                                       !- Service Date Year
  ,                                       !- Length of Study Period in Years
  ,                                       !- Tax Rate
  ,                                       !- Depreciation Method
  Yes;                                    !- Use NIST Fuel Escalation Rates

OS:SpaceType,
  {f9b3fd8a-24f9-49b5-a9bc-1eebd4ea9fc7}, !- Handle
  189.1-2009 - Office - BreakRoom - CZ1-3, !- Name
  ,                                       !- Default Construction Set Name
  {27b62cf0-334a-4596-8996-0568c9427e8d}, !- Default Schedule Set Name
  {48906ab5-a607-4422-9475-9be8fdca73ae}, !- Group Rendering Name
  {9de2f551-29b7-47a9-8d49-e93c98e6b16d}, !- Design Specification Outdoor Air Object Name
  ,                                       !- Standards Template
  Office,                                 !- Standards Building Type
  BreakRoom;                              !- Standards Space Type

OS:DefaultScheduleSet,
  {27b62cf0-334a-4596-8996-0568c9427e8d}, !- Handle
  189.1-2009 - Office - BreakRoom - CZ1-3 Schedule Set, !- Name
  ,                                       !- Hours of Operation Schedule Name
  {02906789-7ee8-4019-a28a-ab20308b1a64}, !- Number of People Schedule Name
  {01b5327b-9875-4a34-9588-c6ae284958d9}, !- People Activity Level Schedule Name
  {0fe66499-3e9c-4b96-b913-7856ea833cf9}, !- Lighting Schedule Name
  {e66500db-7f62-46fe-b123-b5037504abcb}, !- Electric Equipment Schedule Name
  ,                                       !- Gas Equipment Schedule Name
  ,                                       !- Hot Water Equipment Schedule Name
  {040b08d1-b6b8-4fc5-9291-6aad28e1605c}, !- Infiltration Schedule Name
  ,                                       !- Steam Equipment Schedule Name
  ;                                       !- Other Equipment Schedule Name

OS:Rendering:Color,
  {48906ab5-a607-4422-9475-9be8fdca73ae}, !- Handle
  Rendering Color 1,                      !- Name
  230,                                    !- Rendering Red Value
  157,                                    !- Rendering Green Value
  120,                                    !- Rendering Blue Value
  255;                                    !- Rendering Alpha Value

OS:DesignSpecification:OutdoorAir,
  {9de2f551-29b7-47a9-8d49-e93c98e6b16d}, !- Handle
  189.1-2009 - Office - BreakRoom - CZ1-3 Ventilation, !- Name
  Sum,                                    !- Outdoor Air Method
  0.007079211648,                         !- Outdoor Air Flow per Person {m3/s-person}
  ,                                       !- Outdoor Air Flow per Floor Area {m3/s-m2}
  ,                                       !- Outdoor Air Flow Rate {m3/s}
  ,                                       !- Outdoor Air Flow Air Changes per Hour {1/hr}
  ;                                       !- Outdoor Air Flow Rate Fraction Schedule Name

OS:Schedule:Ruleset,
  {02906789-7ee8-4019-a28a-ab20308b1a64}, ! Handle
  Office Misc Occ,                        ! Name
  {12148c0a-523e-40ce-9e39-a7e0d259c3c1}, ! Schedule Type Limits Name
  {4601b2f7-a6d5-487a-9e45-92c7d101dcad}, ! Default Day Schedule Name
  {57f05997-c562-4a66-a7c3-6413df4b44b1}, ! Summer Design Day Schedule Name
  {0bf982f1-f03d-4271-bb49-77d28555f95a}; ! Winter Design Day Schedule Name

OS:Schedule:Day,
  {4601b2f7-a6d5-487a-9e45-92c7d101dcad}, ! Handle
  Office Bldg Occ Default Schedule 1,     ! Name
  {12148c0a-523e-40ce-9e39-a7e0d259c3c1}, ! Schedule Type Limits Name
  ,                                       ! Interpolate to Timestep
  6,                                      !- Hour 1
  0,                                      !- Minute 1
  0,                                      !- Value Until Time 1
  7,                                      !- Hour 2
  0,                                      !- Minute 2
  0.100000001490116,                      !- Value Until Time 2
  8,                                      !- Hour 3
  0,                                      !- Minute 3
  0.200000002980232,                      !- Value Until Time 3
  20,                                     !- Hour 4
  0,                                      !- Minute 4
  0.400000005960464,                      !- Value Until Time 4
  22,                                     !- Hour 5
  0,                                      !- Minute 5
  0.100000001490116,                      !- Value Until Time 5
  24,                                     !- Hour 6
  0,                                      !- Minute 6
  0.0500000007450581;                     !- Value Until Time 6

OS:Schedule:Day,
  {57f05997-c562-4a66-a7c3-6413df4b44b1}, ! Handle
  Office Bldg Occ Summer Design Day 1,    ! Name
  {12148c0a-523e-40ce-9e39-a7e0d259c3c1}, ! Schedule Type Limits Name
  ,                                       ! Interpolate to Timestep
  6,                                      ! Hour 1
  0,                                      ! Minute 1
  0,                                      ! Value Until Time 1
  22,                                     ! Hour 2
  0,                                      ! Minute 2
  1,                                      ! Value Until Time 2
  24,                                     ! Hour 3
  0,                                      ! Minute 3
  0.050000000000000003;                   ! Value Until Time 3

OS:Schedule:Day,
  {0bf982f1-f03d-4271-bb49-77d28555f95a}, ! Handle
  Office Bldg Occ Winter Design Day 1,    ! Name
  {12148c0a-523e-40ce-9e39-a7e0d259c3c1}, ! Schedule Type Limits Name
  ,                                       ! Interpolate to Timestep
  24,                                     ! Hour 1
  0,                                      ! Minute 1
  0;                                      ! Value Until Time 1

OS:Schedule:Rule,
  {ec976b6d-5d97-4b49-86ea-81ecf6d38120}, !- Handle
  Office Misc Occ Rule 1,                 !- Name
  {02906789-7ee8-4019-a28a-ab20308b1a64}, !- Schedule Ruleset Name
  0,                                      !- Rule Order
  {9228641b-1026-4f31-8400-9f6526cb232b}, !- Day Schedule Name
  Yes,                                    !- Apply Sunday
  No,                                     !- Apply Monday
  No,                                     !- Apply Tuesday
  No,                                     !- Apply Wednesday
  No,                                     !- Apply Thursday
  No,                                     !- Apply Friday
  No,                                     !- Apply Saturday
  DateRange,                              !- Date Specification Type
  1,                                      !- Start Month
  1,                                      !- Start Day
  12,                                     !- End Month
  31;                                     !- End Day

OS:Schedule:Rule,
  {ce11eeeb-c531-4116-919f-d2e4c5496418}, !- Handle
  Office Misc Occ Rule 2,                 !- Name
  {02906789-7ee8-4019-a28a-ab20308b1a64}, !- Schedule Ruleset Name
  1,                                      !- Rule Order
  {78d27c7a-ddc4-4b37-8c3f-4a91fd4c313d}, !- Day Schedule Name
  No,                                     !- Apply Sunday
  No,                                     !- Apply Monday
  No,                                     !- Apply Tuesday
  No,                                     !- Apply Wednesday
  No,                                     !- Apply Thursday
  No,                                     !- Apply Friday
  Yes,                                    !- Apply Saturday
  DateRange,                              !- Date Specification Type
  1,                                      !- Start Month
  1,                                      !- Start Day
  12,                                     !- End Month
  31;                                     !- End Day

OS:Schedule:Day,
  {9228641b-1026-4f31-8400-9f6526cb232b}, ! Handle
  Office Bldg Occ Rule 1 Day Schedule 1,  ! Name
  {12148c0a-523e-40ce-9e39-a7e0d259c3c1}, ! Schedule Type Limits Name
  ,                                       ! Interpolate to Timestep
  24,                                     ! Hour 1
  0,                                      ! Minute 1
  0;                                      ! Value Until Time 1

OS:Schedule:Day,
  {78d27c7a-ddc4-4b37-8c3f-4a91fd4c313d}, ! Handle
  Office Bldg Occ Rule 2 Day Schedule 1,  ! Name
  {12148c0a-523e-40ce-9e39-a7e0d259c3c1}, ! Schedule Type Limits Name
  ,                                       ! Interpolate to Timestep
  6,                                      !- Hour 1
  0,                                      !- Minute 1
  0,                                      !- Value Until Time 1
  8,                                      !- Hour 2
  0,                                      !- Minute 2
  0.100000001490116,                      !- Value Until Time 2
  14,                                     !- Hour 3
  0,                                      !- Minute 3
  0.25,                                   !- Value Until Time 3
  17,                                     !- Hour 4
  0,                                      !- Minute 4
  0.100000001490116,                      !- Value Until Time 4
  24,                                     !- Hour 5
  0,                                      !- Minute 5
  0;                                      !- Value Until Time 5

OS:Schedule:Ruleset,
  {01b5327b-9875-4a34-9588-c6ae284958d9}, ! Handle
  Office Activity,                        ! Name
  {7ff61ddc-e16e-4c0e-9699-e5543d803616}, ! Schedule Type Limits Name
  {2fdb58b3-fac3-4bac-8db5-a41af4b85753}, ! Default Day Schedule Name
  {b4a04999-222f-4975-bea6-1c1311160872}, ! Summer Design Day Schedule Name
  {46dd888c-2e9f-4373-bea0-2434ac4aec94}; ! Winter Design Day Schedule Name

OS:Schedule:Day,
  {2fdb58b3-fac3-4bac-8db5-a41af4b85753}, ! Handle
  Office Activity Default Schedule,       ! Name
  {7ff61ddc-e16e-4c0e-9699-e5543d803616}, ! Schedule Type Limits Name
  ,                                       ! Interpolate to Timestep
  24,                                     !- Hour 1
  0,                                      !- Minute 1
  132;                                    !- Value Until Time 1

OS:Schedule:Day,
  {b4a04999-222f-4975-bea6-1c1311160872}, ! Handle
  Office Activity Summer Design Day,      ! Name
  {7ff61ddc-e16e-4c0e-9699-e5543d803616}, ! Schedule Type Limits Name
  ,                                       ! Interpolate to Timestep
  24,                                     !- Hour 1
  0,                                      !- Minute 1
  132;                                    !- Value Until Time 1

OS:Schedule:Day,
  {46dd888c-2e9f-4373-bea0-2434ac4aec94}, ! Handle
  Office Activity Winter Design Day,      ! Name
  {7ff61ddc-e16e-4c0e-9699-e5543d803616}, ! Schedule Type Limits Name
  ,                                       ! Interpolate to Timestep
  24,                                     !- Hour 1
  0,                                      !- Minute 1
  132;                                    !- Value Until Time 1

OS:Schedule:Ruleset,
  {0fe66499-3e9c-4b96-b913-7856ea833cf9}, ! Handle
  Office Bldg Light,                      ! Name
  {12148c0a-523e-40ce-9e39-a7e0d259c3c1}, ! Schedule Type Limits Name
  {69968a91-d978-475d-b9d6-8a83502d773e}, ! Default Day Schedule Name
  {bc5f55c0-fb27-48ae-b318-589463c2070c}, ! Summer Design Day Schedule Name
  {a4d4441b-3234-4c48-a990-1ed4801bef3d}; ! Winter Design Day Schedule Name

OS:Schedule:Day,
  {69968a91-d978-475d-b9d6-8a83502d773e}, ! Handle
  Office Bldg Light Default Schedule,     ! Name
  {12148c0a-523e-40ce-9e39-a7e0d259c3c1}, ! Schedule Type Limits Name
  ,                                       ! Interpolate to Timestep
  5,                                      !- Hour 1
  0,                                      !- Minute 1
  0.05,                                   !- Value Until Time 1
  7,                                      !- Hour 2
  0,                                      !- Minute 2
  0.1,                                    !- Value Until Time 2
  8,                                      !- Hour 3
  0,                                      !- Minute 3
  0.3,                                    !- Value Until Time 3
  17,                                     !- Hour 4
  0,                                      !- Minute 4
  0.9,                                    !- Value Until Time 4
  18,                                     !- Hour 5
  0,                                      !- Minute 5
  0.7,                                    !- Value Until Time 5
  20,                                     !- Hour 6
  0,                                      !- Minute 6
  0.5,                                    !- Value Until Time 6
  22,                                     !- Hour 7
  0,                                      !- Minute 7
  0.3,                                    !- Value Until Time 7
  23,                                     !- Hour 8
  0,                                      !- Minute 8
  0.1,                                    !- Value Until Time 8
  24,                                     !- Hour 9
  0,                                      !- Minute 9
  0.05;                                   !- Value Until Time 9

OS:Schedule:Day,
  {bc5f55c0-fb27-48ae-b318-589463c2070c}, ! Handle
  Office Bldg Light Summer Design Day,    ! Name
  {12148c0a-523e-40ce-9e39-a7e0d259c3c1}, ! Schedule Type Limits Name
  ,                                       ! Interpolate to Timestep
  24,                                     ! Hour 1
  0,                                      ! Minute 1
  1;                                      ! Value Until Time 1

OS:Schedule:Day,
  {a4d4441b-3234-4c48-a990-1ed4801bef3d}, ! Handle
  Office Bldg Light Winter Design Day,    ! Name
  {12148c0a-523e-40ce-9e39-a7e0d259c3c1}, ! Schedule Type Limits Name
  ,                                       ! Interpolate to Timestep
  24,                                     ! Hour 1
  0,                                      ! Minute 1
  0;                                      ! Value Until Time 1

OS:Schedule:Rule,
  {cab89b3e-0b85-4990-b460-89ed2aa56a5e}, !- Handle
  Office Bldg Light Rule 1,               !- Name
  {0fe66499-3e9c-4b96-b913-7856ea833cf9}, !- Schedule Ruleset Name
  0,                                      !- Rule Order
  {246144ae-8c35-495e-8b51-33716a4a4900}, !- Day Schedule Name
  Yes,                                    !- Apply Sunday
  No,                                     !- Apply Monday
  No,                                     !- Apply Tuesday
  No,                                     !- Apply Wednesday
  No,                                     !- Apply Thursday
  No,                                     !- Apply Friday
  No,                                     !- Apply Saturday
  DateRange,                              !- Date Specification Type
  1,                                      !- Start Month
  1,                                      !- Start Day
  12,                                     !- End Month
  31;                                     !- End Day

OS:Schedule:Rule,
  {897b5a35-efbc-43cf-bf69-a2645461d72e}, !- Handle
  Office Bldg Light Rule 2,               !- Name
  {0fe66499-3e9c-4b96-b913-7856ea833cf9}, !- Schedule Ruleset Name
  1,                                      !- Rule Order
  {93d08cd1-8192-490a-897a-aa028f8b3ac5}, !- Day Schedule Name
  No,                                     !- Apply Sunday
  No,                                     !- Apply Monday
  No,                                     !- Apply Tuesday
  No,                                     !- Apply Wednesday
  No,                                     !- Apply Thursday
  No,                                     !- Apply Friday
  Yes,                                    !- Apply Saturday
  DateRange,                              !- Date Specification Type
  1,                                      !- Start Month
  1,                                      !- Start Day
  12,                                     !- End Month
  31;                                     !- End Day

OS:Schedule:Day,
  {246144ae-8c35-495e-8b51-33716a4a4900}, ! Handle
  Office Bldg Light Rule 1 Day Schedule,  ! Name
  {12148c0a-523e-40ce-9e39-a7e0d259c3c1}, ! Schedule Type Limits Name
  ,                                       ! Interpolate to Timestep
  24,                                     ! Hour 1
  0,                                      ! Minute 1
  0.050000000000000003;                   ! Value Until Time 1

OS:Schedule:Day,
  {93d08cd1-8192-490a-897a-aa028f8b3ac5}, ! Handle
  Office Bldg Light Rule 2 Day Schedule,  ! Name
  {12148c0a-523e-40ce-9e39-a7e0d259c3c1}, ! Schedule Type Limits Name
  ,                                       ! Interpolate to Timestep
  6,                                      ! Hour 1
  0,                                      ! Minute 1
  0.050000000000000003,                   ! Value Until Time 1
  8,                                      ! Hour 2
  0,                                      ! Minute 2
  0.10000000000000001,                    ! Value Until Time 2
  14,                                     ! Hour 3
  0,                                      ! Minute 3
  0.5,                                    ! Value Until Time 3
  17,                                     ! Hour 4
  0,                                      ! Minute 4
  0.14999999999999999,                    ! Value Until Time 4
  24,                                     ! Hour 5
  0,                                      ! Minute 5
  0.050000000000000003;                   ! Value Until Time 5

OS:Schedule:Ruleset,
  {e66500db-7f62-46fe-b123-b5037504abcb}, ! Handle
  Office Bldg Equip,                      ! Name
  {12148c0a-523e-40ce-9e39-a7e0d259c3c1}, ! Schedule Type Limits Name
  {81d4e122-a388-4c1d-aeeb-eec7e924a8f6}, ! Default Day Schedule Name
  {21641b11-9053-4ae0-8983-1850c6dc7a5f}, ! Summer Design Day Schedule Name
  {0a5597b9-2d9e-4949-8f7a-0b550897ab68}; ! Winter Design Day Schedule Name

OS:Schedule:Day,
  {81d4e122-a388-4c1d-aeeb-eec7e924a8f6}, ! Handle
  Office Bldg Equip Default Schedule,     ! Name
  {12148c0a-523e-40ce-9e39-a7e0d259c3c1}, ! Schedule Type Limits Name
  ,                                       ! Interpolate to Timestep
  8,                                      !- Hour 1
  0,                                      !- Minute 1
  0.4,                                    !- Value Until Time 1
  12,                                     !- Hour 2
  0,                                      !- Minute 2
  0.9,                                    !- Value Until Time 2
  13,                                     !- Hour 3
  0,                                      !- Minute 3
  0.8,                                    !- Value Until Time 3
  17,                                     !- Hour 4
  0,                                      !- Minute 4
  0.9,                                    !- Value Until Time 4
  18,                                     !- Hour 5
  0,                                      !- Minute 5
  0.8,                                    !- Value Until Time 5
  20,                                     !- Hour 6
  0,                                      !- Minute 6
  0.6,                                    !- Value Until Time 6
  22,                                     !- Hour 7
  0,                                      !- Minute 7
  0.5,                                    !- Value Until Time 7
  24,                                     !- Hour 8
  0,                                      !- Minute 8
  0.4;                                    !- Value Until Time 8

OS:Schedule:Day,
  {21641b11-9053-4ae0-8983-1850c6dc7a5f}, ! Handle
  Office Bldg Equip Summer Design Day,    ! Name
  {12148c0a-523e-40ce-9e39-a7e0d259c3c1}, ! Schedule Type Limits Name
  ,                                       ! Interpolate to Timestep
  24,                                     ! Hour 1
  0,                                      ! Minute 1
  1;                                      ! Value Until Time 1

OS:Schedule:Day,
  {0a5597b9-2d9e-4949-8f7a-0b550897ab68}, ! Handle
  Office Bldg Equip Winter Design Day,    ! Name
  {12148c0a-523e-40ce-9e39-a7e0d259c3c1}, ! Schedule Type Limits Name
  ,                                       ! Interpolate to Timestep
  24,                                     ! Hour 1
  0,                                      ! Minute 1
  0;                                      ! Value Until Time 1

OS:Schedule:Rule,
  {0f19b48c-54ba-40a6-8584-72102a97ffa0}, !- Handle
  Office Bldg Equip Rule 1,               !- Name
  {e66500db-7f62-46fe-b123-b5037504abcb}, !- Schedule Ruleset Name
  0,                                      !- Rule Order
  {a749699f-86f8-4616-81be-4cf63552b6f1}, !- Day Schedule Name
  Yes,                                    !- Apply Sunday
  No,                                     !- Apply Monday
  No,                                     !- Apply Tuesday
  No,                                     !- Apply Wednesday
  No,                                     !- Apply Thursday
  No,                                     !- Apply Friday
  No,                                     !- Apply Saturday
  DateRange,                              !- Date Specification Type
  1,                                      !- Start Month
  1,                                      !- Start Day
  12,                                     !- End Month
  31;                                     !- End Day

OS:Schedule:Rule,
  {23c5218a-2044-40c1-8125-155639091f65}, !- Handle
  Office Bldg Equip Rule 2,               !- Name
  {e66500db-7f62-46fe-b123-b5037504abcb}, !- Schedule Ruleset Name
  1,                                      !- Rule Order
  {8b03f6f4-89cd-4218-8b42-4268cc25d454}, !- Day Schedule Name
  No,                                     !- Apply Sunday
  No,                                     !- Apply Monday
  No,                                     !- Apply Tuesday
  No,                                     !- Apply Wednesday
  No,                                     !- Apply Thursday
  No,                                     !- Apply Friday
  Yes,                                    !- Apply Saturday
  DateRange,                              !- Date Specification Type
  1,                                      !- Start Month
  1,                                      !- Start Day
  12,                                     !- End Month
  31;                                     !- End Day

OS:Schedule:Day,
  {a749699f-86f8-4616-81be-4cf63552b6f1}, ! Handle
  Office Bldg Equip Rule 1 Day Schedule,  ! Name
  {12148c0a-523e-40ce-9e39-a7e0d259c3c1}, ! Schedule Type Limits Name
  ,                                       ! Interpolate to Timestep
  24,                                     ! Hour 1
  0,                                      ! Minute 1
  0.29999999999999999;                    ! Value Until Time 1

OS:Schedule:Day,
  {8b03f6f4-89cd-4218-8b42-4268cc25d454}, ! Handle
  Office Bldg Equip Rule 2 Day Schedule,  ! Name
  {12148c0a-523e-40ce-9e39-a7e0d259c3c1}, ! Schedule Type Limits Name
  ,                                       ! Interpolate to Timestep
  6,                                      ! Hour 1
  0,                                      ! Minute 1
  0.29999999999999999,                    ! Value Until Time 1
  8,                                      ! Hour 2
  0,                                      ! Minute 2
  0.40000000000000002,                    ! Value Until Time 2
  14,                                     ! Hour 3
  0,                                      ! Minute 3
  0.5,                                    ! Value Until Time 3
  17,                                     ! Hour 4
  0,                                      ! Minute 4
  0.34999999999999998,                    ! Value Until Time 4
  24,                                     ! Hour 5
  0,                                      ! Minute 5
  0.29999999999999999;                    ! Value Until Time 5

OS:Schedule:Ruleset,
  {040b08d1-b6b8-4fc5-9291-6aad28e1605c}, ! Handle
  Office Infil Quarter On,                ! Name
  {12148c0a-523e-40ce-9e39-a7e0d259c3c1}, ! Schedule Type Limits Name
  {2d2d5632-b4a5-40ed-86a1-526a9bd9dd40}, ! Default Day Schedule Name
  {b661bdae-37bb-4291-a287-d65f8c781d33}, ! Summer Design Day Schedule Name
  {23a4449e-be82-49d5-95c7-54aca7af93cf}; ! Winter Design Day Schedule Name

OS:Schedule:Day,
  {2d2d5632-b4a5-40ed-86a1-526a9bd9dd40}, ! Handle
  Office Infil Quarter On Default Schedule, ! Name
  {12148c0a-523e-40ce-9e39-a7e0d259c3c1}, ! Schedule Type Limits Name
  ,                                       ! Interpolate to Timestep
  6,                                      !- Hour 1
  0,                                      !- Minute 1
  1,                                      !- Value Until Time 1
  22,                                     !- Hour 2