
OS:Version,
  {53ba4588-791c-4a11-9d98-7213ca63a198}, !- Handle
  3.2.0;                                  !- Version Identifier

OS:Site,
  {e9ad97fa-bb26-46f7-a6ca-fcc3a9c035a3}, !- Handle
  Greenville-Spartanburg Intl AP,         !- Name
  34.9,                                   !- Latitude {deg}
  -82.217,                                !- Longitude {deg}
  -5,                                     !- Time Zone {hr}
  292,                                    !- Elevation {m}
  ;                                       !- Terrain

OS:YearDescription,
  {76bfb852-916f-4c87-8b97-daba62be9cca}, !- Handle
  ,                                       !- Calendar Year
  Sunday,                                 !- Day of Week for Start Day
  ;                                       !- Is Leap Year

OS:ClimateZones,
  {e3055fb7-d87b-4390-b683-ef093943562b}, !- Handle
  ASHRAE,                                 !- Climate Zone Institution Name 1
  ANSI/ASHRAE Standard 169,               !- Climate Zone Document Name 1
  2006,                                   !- Climate Zone Document Year 1
  3A,                                     !- Climate Zone Value 1
  CEC,                                    !- Climate Zone Institution Name 2
  California Climate Zone Descriptions,   !- Climate Zone Document Name 2
  1995,                                   !- Climate Zone Document Year 2
  ;                                       !- Climate Zone Value 2

OS:Building,
  {ac12825f-a553-4d5f-bcfa-f7b665f8c257}, !- Handle
  Building 1,                             !- Name
  ,                                       !- Building Sector Type
  71.5,                                   !- North Axis {deg}
  ,                                       !- Nominal Floor to Floor Height {m}
  {a6e0626f-028e-4794-bbed-f9b4fe8e3696}, !- Space Type Name
  {0490eb63-256b-4129-a6d6-24bad35cdaba}, !- Default Construction Set Name
  {e246d373-2c66-4c82-ba05-ae8825b7812d}, !- Default Schedule Set Name
  ,                                       !- Standards Number of Stories
  ,                                       !- Standards Number of Above Ground Stories
  ,                                       !- Standards Template
  ,                                       !- Standards Building Type
  ,                                       !- Standards Number of Living Units
  ,                                       !- Relocatable
  ;                                       !- Nominal Floor to Ceiling Height {m}

OS:Facility,
  {2d8cd428-ece6-4e42-857a-9e3e2a9bcaa9}; !- Handle

OS:SimulationControl,
  {c3b20e80-f60d-4e76-b441-e4f8381331bb}, !- Handle
  Yes,                                    !- Do Zone Sizing Calculation
  Yes,                                    !- Do System Sizing Calculation
  No,                                     !- Do Plant Sizing Calculation
  No,                                     !- Run Simulation for Sizing Periods
  Yes,                                    !- Run Simulation for Weather File Run Periods
  ,                                       !- Loads Convergence Tolerance Value {W}
  ,                                       !- Temperature Convergence Tolerance Value {deltaC}
  ,                                       !- Solar Distribution
  ,                                       !- Maximum Number of Warmup Days
  ,                                       !- Minimum Number of Warmup Days
  No;                                     !- Do HVAC Sizing Simulation for Sizing Periods

OS:Sizing:Parameters,
  {b1a2d170-67a1-47b8-af4f-273b3eddbcb2}, !- Handle
  1.25,                                   !- Heating Sizing Factor
  1.15;                                   !- Cooling Sizing Factor

OS:Timestep,
  {dae36416-1df7-4b11-8496-56a553c7e41f}, !- Handle
  6;                                      !- Number of Timesteps per Hour

OS:ShadowCalculation,
  {934e1796-d80e-424e-887e-2ac4e373bf31}, !- Handle
  PolygonClipping,                        !- Shading Calculation Method
  ,                                       !- Shading Calculation Update Frequency Method
  20,                                     !- Shading Calculation Update Frequency
  15000,                                  !- Maximum Figures in Shadow Overlap Calculations
  ,                                       !- Polygon Clipping Algorithm
  512,                                    !- Pixel Counting Resolution
  ,                                       !- Sky Diffuse Modeling Algorithm
  No,                                     !- Output External Shading Calculation Results
  No,                                     !- Disable Self-Shading Within Shading Zone Groups
  No;                                     !- Disable Self-Shading From Shading Zone Groups to Other Zones

OS:HeatBalanceAlgorithm,
  {6cd12435-0bc2-49f9-87d8-5ba25f1f8d95}, !- Handle
  ConductionTransferFunction,             !- Algorithm
  200;                                    !- Surface Temperature Upper Limit {C}

OS:RunPeriod,
  {b5b299a6-cdfe-4322-9b17-2b0e766358d5}, !- Handle
  Run Period 1,                           !- Name
  4,                                      !- Begin Month
  1,                                      !- Begin Day of Month
  4,                                      !- End Month
  30,                                     !- End Day of Month
  No,                                     !- Use Weather File Holidays and Special Days
  No,                                     !- Use Weather File Daylight Saving Period
  No,                                     !- Apply Weekend Holiday Rule
  ,                                       !- Use Weather File Rain Indicators
  ,                                       !- Use Weather File Snow Indicators
  ;                                       !- Number of Times Runperiod to be Repeated

OS:LifeCycleCost:Parameters,
  {82b5bf94-176d-4043-9262-ae07a864fae9}, !- Handle
  FEMP,                                   !- Analysis Type
  ,                                       !- Discounting Convention
  ,                                       !- Inflation Approach
  ,                                       !- Real Discount Rate
  ,                                       !- Nominal Discount Rate
  ,                                       !- Inflation
  ,                                       !- Base Date Month
  ,                                       !- Base Date Year
  ,                                       !- Service Date Month
  ,                                       !- Service Date Year
  ,                                       !- Length of Study Period in Years
  ,                                       !- Tax Rate
  ,                                       !- Depreciation Method
  Yes;                                    !- Use NIST Fuel Escalation Rates

OS:Space,
  {1ac5fb28-3252-412c-8e87-44fafbc3b5c6}, !- Handle
  210,                                    !- Name
  {48d202ab-da8f-45c8-9f46-2e5ef64232f0}, !- Space Type Name
  {db0943da-197a-40e5-a394-c0b96c8f4590}, !- Default Construction Set Name
  ,                                       !- Default Schedule Set Name
  ,                                       !- Direction of Relative North {deg}
  ,                                       !- X Origin {m}
  ,                                       !- Y Origin {m}
  ,                                       !- Z Origin {m}
  {f13c7761-85ee-43d2-ae65-7276bc4aa963}, !- Building Story Name
  {da4ba40e-fab6-460c-bcbc-3361e6f6b220}, !- Thermal Zone Name
  ,                                       !- Part of Total Floor Area
  ,                                       !- Design Specification Outdoor Air Object Name
  ;                                       !- Building Unit Name

OS:BuildingStory,
  {f13c7761-85ee-43d2-ae65-7276bc4aa963}, !- Handle
  Story 1,                                !- Name
  0,                                      !- Nominal Z Coordinate {m}
  2.4384,                                 !- Nominal Floor to Floor Height {m}
  ,                                       !- Default Construction Set Name
  ,                                       !- Default Schedule Set Name
  {26b95a74-0897-4bd2-b640-e1fbaef410a4}, !- Group Rendering Name
  2.4384;                                 !- Nominal Floor to Ceiling Height {m}

OS:Rendering:Color,
  {26b95a74-0897-4bd2-b640-e1fbaef410a4}, !- Handle
  Rendering Color 1,                      !- Name
  51,                                     !- Rendering Red Value
  34,                                     !- Rendering Green Value
  136,                                    !- Rendering Blue Value
  255;                                    !- Rendering Alpha Value

OS:Space,
  {6e4aff40-fb51-4aa4-9e49-255ca4bb4b67}, !- Handle
  2006,                                   !- Name
  {48d202ab-da8f-45c8-9f46-2e5ef64232f0}, !- Space Type Name
  {db0943da-197a-40e5-a394-c0b96c8f4590}, !- Default Construction Set Name
  ,                                       !- Default Schedule Set Name
  ,                                       !- Direction of Relative North {deg}
  ,                                       !- X Origin {m}
  ,                                       !- Y Origin {m}
  ,                                       !- Z Origin {m}
  {f13c7761-85ee-43d2-ae65-7276bc4aa963}, !- Building Story Name
  {98e1fc6f-19d6-459d-923c-576469b4f721}, !- Thermal Zone Name
  ,                                       !- Part of Total Floor Area
  ,                                       !- Design Specification Outdoor Air Object Name
  ;                                       !- Building Unit Name

OS:Space,
  {bbc816e9-f02e-45c5-8432-790092ef74e3}, !- Handle
  209,                                    !- Name
  {c8cb7979-98e5-4240-89e6-8078783ed542}, !- Space Type Name
  {db0943da-197a-40e5-a394-c0b96c8f4590}, !- Default Construction Set Name
  ,                                       !- Default Schedule Set Name
  ,                                       !- Direction of Relative North {deg}
  ,                                       !- X Origin {m}
  ,                                       !- Y Origin {m}
  ,                                       !- Z Origin {m}
  {f13c7761-85ee-43d2-ae65-7276bc4aa963}, !- Building Story Name
  {d295ca2b-a8eb-45c7-a9bc-1c71f5d3db65}, !- Thermal Zone Name
  ,                                       !- Part of Total Floor Area
  ,                                       !- Design Specification Outdoor Air Object Name
  ;                                       !- Building Unit Name

OS:Space,
  {922d5d49-20b6-489e-94aa-07e6e3780d23}, !- Handle
  208,                                    !- Name
  {66dd8f60-a33e-412d-9a68-d10c21fe4e44}, !- Space Type Name
  {db0943da-197a-40e5-a394-c0b96c8f4590}, !- Default Construction Set Name
  ,                                       !- Default Schedule Set Name
  ,                                       !- Direction of Relative North {deg}
  ,                                       !- X Origin {m}
  ,                                       !- Y Origin {m}
  ,                                       !- Z Origin {m}
  {f13c7761-85ee-43d2-ae65-7276bc4aa963}, !- Building Story Name
  {7762500c-fb1b-4b7e-ab61-18887c49a857}, !- Thermal Zone Name
  ,                                       !- Part of Total Floor Area
  ,                                       !- Design Specification Outdoor Air Object Name
  ;                                       !- Building Unit Name

OS:Space,
  {33345afa-6af9-44a9-9e30-63972ffee00a}, !- Handle
  220,                                    !- Name
  {c8cb7979-98e5-4240-89e6-8078783ed542}, !- Space Type Name
  {db0943da-197a-40e5-a394-c0b96c8f4590}, !- Default Construction Set Name
  ,                                       !- Default Schedule Set Name
  ,                                       !- Direction of Relative North {deg}
  ,                                       !- X Origin {m}
  ,                                       !- Y Origin {m}
  ,                                       !- Z Origin {m}
  {f13c7761-85ee-43d2-ae65-7276bc4aa963}, !- Building Story Name
  {d295ca2b-a8eb-45c7-a9bc-1c71f5d3db65}, !- Thermal Zone Name
  ,                                       !- Part of Total Floor Area
  ,                                       !- Design Specification Outdoor Air Object Name
  ;                                       !- Building Unit Name

OS:Space,
  {356986cb-c32f-41d8-963c-99c54f8a6a3b}, !- Handle
  214,                                    !- Name
  {c8cb7979-98e5-4240-89e6-8078783ed542}, !- Space Type Name
  {db0943da-197a-40e5-a394-c0b96c8f4590}, !- Default Construction Set Name
  ,                                       !- Default Schedule Set Name
  ,                                       !- Direction of Relative North {deg}
  ,                                       !- X Origin {m}
  ,                                       !- Y Origin {m}
  ,                                       !- Z Origin {m}
  {f13c7761-85ee-43d2-ae65-7276bc4aa963}, !- Building Story Name
  {d295ca2b-a8eb-45c7-a9bc-1c71f5d3db65}, !- Thermal Zone Name
  ,                                       !- Part of Total Floor Area
  ,                                       !- Design Specification Outdoor Air Object Name
  ;                                       !- Building Unit Name

OS:Space,
  {07f87871-05ae-4fec-9c94-b8a0e5fb2291}, !- Handle
  211,                                    !- Name
  {12a2c468-b48a-478b-8bd2-a247722e1f0c}, !- Space Type Name
  {db0943da-197a-40e5-a394-c0b96c8f4590}, !- Default Construction Set Name
  ,                                       !- Default Schedule Set Name
  ,                                       !- Direction of Relative North {deg}
  ,                                       !- X Origin {m}
  ,                                       !- Y Origin {m}
  ,                                       !- Z Origin {m}
  {f13c7761-85ee-43d2-ae65-7276bc4aa963}, !- Building Story Name
  {764db824-b702-4cfe-8947-f6fe7e773026}, !- Thermal Zone Name
  ,                                       !- Part of Total Floor Area
  ,                                       !- Design Specification Outdoor Air Object Name
  ;                                       !- Building Unit Name

OS:Space,
  {1279929a-0dff-4114-a56b-4d2187222991}, !- Handle
  212,                                    !- Name
  {12a2c468-b48a-478b-8bd2-a247722e1f0c}, !- Space Type Name
  {db0943da-197a-40e5-a394-c0b96c8f4590}, !- Default Construction Set Name
  ,                                       !- Default Schedule Set Name
  ,                                       !- Direction of Relative North {deg}
  ,                                       !- X Origin {m}
  ,                                       !- Y Origin {m}
  ,                                       !- Z Origin {m}
  {f13c7761-85ee-43d2-ae65-7276bc4aa963}, !- Building Story Name
  {764db824-b702-4cfe-8947-f6fe7e773026}, !- Thermal Zone Name
  ,                                       !- Part of Total Floor Area
  ,                                       !- Design Specification Outdoor Air Object Name
  ;                                       !- Building Unit Name

OS:Space,
  {ed393cbf-826f-4513-bd53-b62b369d22c0}, !- Handle
  213,                                    !- Name
  {12a2c468-b48a-478b-8bd2-a247722e1f0c}, !- Space Type Name
  {db0943da-197a-40e5-a394-c0b96c8f4590}, !- Default Construction Set Name
  ,                                       !- Default Schedule Set Name
  ,                                       !- Direction of Relative North {deg}
  ,                                       !- X Origin {m}
  ,                                       !- Y Origin {m}
  ,                                       !- Z Origin {m}
  {f13c7761-85ee-43d2-ae65-7276bc4aa963}, !- Building Story Name
  {764db824-b702-4cfe-8947-f6fe7e773026}, !- Thermal Zone Name
  ,                                       !- Part of Total Floor Area
  ,                                       !- Design Specification Outdoor Air Object Name
  ;                                       !- Building Unit Name

OS:Space,
  {404f2070-6457-4bbe-bbdf-0534d8ef1713}, !- Handle
  201,                                    !- Name
  {d08b3185-be6f-46d4-8696-b35e1e91c0ce}, !- Space Type Name
  {db0943da-197a-40e5-a394-c0b96c8f4590}, !- Default Construction Set Name
  ,                                       !- Default Schedule Set Name
  ,                                       !- Direction of Relative North {deg}
  ,                                       !- X Origin {m}
  ,                                       !- Y Origin {m}
  ,                                       !- Z Origin {m}
  {f13c7761-85ee-43d2-ae65-7276bc4aa963}, !- Building Story Name
  {21bb3856-358b-4c56-bcc3-a6d2abb089fe}, !- Thermal Zone Name
  ,                                       !- Part of Total Floor Area
  ,                                       !- Design Specification Outdoor Air Object Name
  ;                                       !- Building Unit Name

OS:Space,
  {ed8573c7-4d00-47dc-9516-4d8a73cf22c0}, !- Handle
  202,                                    !- Name
  {d08b3185-be6f-46d4-8696-b35e1e91c0ce}, !- Space Type Name
  {db0943da-197a-40e5-a394-c0b96c8f4590}, !- Default Construction Set Name
  ,                                       !- Default Schedule Set Name
  ,                                       !- Direction of Relative North {deg}
  ,                                       !- X Origin {m}
  ,                                       !- Y Origin {m}
  ,                                       !- Z Origin {m}
  {f13c7761-85ee-43d2-ae65-7276bc4aa963}, !- Building Story Name
  {21bb3856-358b-4c56-bcc3-a6d2abb089fe}, !- Thermal Zone Name
  ,                                       !- Part of Total Floor Area
  ,                                       !- Design Specification Outdoor Air Object Name
  ;                                       !- Building Unit Name

OS:Space,
  {df749112-3122-43eb-90f4-f57b9e25ac54}, !- Handle
  206,                                    !- Name
  {66dd8f60-a33e-412d-9a68-d10c21fe4e44}, !- Space Type Name
  {db0943da-197a-40e5-a394-c0b96c8f4590}, !- Default Construction Set Name
  ,                                       !- Default Schedule Set Name
  ,                                       !- Direction of Relative North {deg}
  ,                                       !- X Origin {m}
  ,                                       !- Y Origin {m}
  ,                                       !- Z Origin {m}
  {f13c7761-85ee-43d2-ae65-7276bc4aa963}, !- Building Story Name
  {51ee982e-02d0-4ea4-8d1c-92068454824a}, !- Thermal Zone Name
  ,                                       !- Part of Total Floor Area
  ,                                       !- Design Specification Outdoor Air Object Name
  ;                                       !- Building Unit Name

OS:Rendering:Color,
  {d82ec6d9-7531-47d3-b64c-181d12921213}, !- Handle
  Rendering Color 2,                      !- Name
  136,                                    !- Rendering Red Value
  204,                                    !- Rendering Green Value
  238,                                    !- Rendering Blue Value
  255;                                    !- Rendering Alpha Value

OS:Construction:AirBoundary,
  {9af29a9b-ab7f-4b0d-935c-b4c9dc60d9f2}, !- Handle
  AirWall,                                !- Name
  ,                                       !- Air Exchange Method
  0;                                      !- Simple Mixing Air Changes per Hour {1/hr}

OS:StandardsInformation:Construction,
  {703f4042-0d21-47dc-8b66-3dabe827d35a}, !- Handle
  {9af29a9b-ab7f-4b0d-935c-b4c9dc60d9f2}; !- Construction Name

OS:ThermostatSetpoint:DualSetpoint,
  {37cfe887-db36-4960-b512-0298525c50ad}, !- Handle
  Thermostat Setpoint Dual Setpoint 1;    !- Name

OS:ZoneControl:Humidistat,
  {78cb0e09-16d9-4498-b56b-10c2c361f056}, !- Handle
  Zone Control Humidistat 1,              !- Name
  ;                                       !- Humidifying Relative Humidity Setpoint Schedule Name

OS:Space,
  {226808af-16e8-4069-8eae-c479d55efeef}, !- Handle
  2003,                                   !- Name
  {48d202ab-da8f-45c8-9f46-2e5ef64232f0}, !- Space Type Name
  {db0943da-197a-40e5-a394-c0b96c8f4590}, !- Default Construction Set Name
  ,                                       !- Default Schedule Set Name
  ,                                       !- Direction of Relative North {deg}
  ,                                       !- X Origin {m}
  ,                                       !- Y Origin {m}
  ,                                       !- Z Origin {m}
  {f13c7761-85ee-43d2-ae65-7276bc4aa963}, !- Building Story Name
  {7b1a479a-829a-4d4a-a3c8-6303a9489613}, !- Thermal Zone Name
  ,                                       !- Part of Total Floor Area
  ,                                       !- Design Specification Outdoor Air Object Name
  ;                                       !- Building Unit Name

OS:Space,
  {8e8a71ba-bb49-4ec4-9a65-46345e0219e6}, !- Handle
  2001,                                   !- Name
  {48d202ab-da8f-45c8-9f46-2e5ef64232f0}, !- Space Type Name
  {db0943da-197a-40e5-a394-c0b96c8f4590}, !- Default Construction Set Name
  ,                                       !- Default Schedule Set Name
  ,                                       !- Direction of Relative North {deg}
  ,                                       !- X Origin {m}
  ,                                       !- Y Origin {m}
  ,                                       !- Z Origin {m}
  {f13c7761-85ee-43d2-ae65-7276bc4aa963}, !- Building Story Name
  {b2607003-9e93-4b95-a1d1-08fb888ee3d9}, !- Thermal Zone Name
  ,                                       !- Part of Total Floor Area
  ,                                       !- Design Specification Outdoor Air Object Name
  ;                                       !- Building Unit Name

OS:Space,
  {d2c220ae-e4e6-4a56-a908-1ee2a8fe0440}, !- Handle
  2002,                                   !- Name
  {48d202ab-da8f-45c8-9f46-2e5ef64232f0}, !- Space Type Name
  {db0943da-197a-40e5-a394-c0b96c8f4590}, !- Default Construction Set Name
  ,                                       !- Default Schedule Set Name
  ,                                       !- Direction of Relative North {deg}
  ,                                       !- X Origin {m}
  ,                                       !- Y Origin {m}
  ,                                       !- Z Origin {m}
  {f13c7761-85ee-43d2-ae65-7276bc4aa963}, !- Building Story Name
  {9222596f-a197-4b76-93cd-2da06793f906}, !- Thermal Zone Name
  ,                                       !- Part of Total Floor Area
  ,                                       !- Design Specification Outdoor Air Object Name
  ;                                       !- Building Unit Name

OS:Space,
  {9fb36d54-d209-4978-9d03-25d1db3fd953}, !- Handle
  2004,                                   !- Name
  {48d202ab-da8f-45c8-9f46-2e5ef64232f0}, !- Space Type Name
  {db0943da-197a-40e5-a394-c0b96c8f4590}, !- Default Construction Set Name
  ,                                       !- Default Schedule Set Name
  ,                                       !- Direction of Relative North {deg}
  ,                                       !- X Origin {m}
  ,                                       !- Y Origin {m}
  ,                                       !- Z Origin {m}
  {f13c7761-85ee-43d2-ae65-7276bc4aa963}, !- Building Story Name
  {bee9621d-30c9-4b7c-a673-32e3292ce2c4}, !- Thermal Zone Name
  ,                                       !- Part of Total Floor Area
  ,                                       !- Design Specification Outdoor Air Object Name
  ;                                       !- Building Unit Name

OS:Space,
  {16d66e7a-4699-4f5c-b10a-d098097f244a}, !- Handle
  2005,                                   !- Name
  {48d202ab-da8f-45c8-9f46-2e5ef64232f0}, !- Space Type Name
  {db0943da-197a-40e5-a394-c0b96c8f4590}, !- Default Construction Set Name
  ,                                       !- Default Schedule Set Name
  ,                                       !- Direction of Relative North {deg}
  ,                                       !- X Origin {m}
  ,                                       !- Y Origin {m}
  ,                                       !- Z Origin {m}
  {f13c7761-85ee-43d2-ae65-7276bc4aa963}, !- Building Story Name
  {5435d2d7-cce2-4d0b-a257-37f3d530a8cb}, !- Thermal Zone Name
  ,                                       !- Part of Total Floor Area
  ,                                       !- Design Specification Outdoor Air Object Name
  ;                                       !- Building Unit Name

OS:ThermalZone,
  {d295ca2b-a8eb-45c7-a9bc-1c71f5d3db65}, !- Handle
  Thermal Zone 3,                         !- Name
  1,                                      !- Multiplier
  ,                                       !- Ceiling Height {m}
  ,                                       !- Volume {m3}
  ,                                       !- Floor Area {m2}
  ,                                       !- Zone Inside Convection Algorithm
  ,                                       !- Zone Outside Convection Algorithm
  ,                                       !- Zone Conditioning Equipment List Name
  {025d9671-a117-4328-a385-8599ea10e0a5}, !- Zone Air Inlet Port List
  {69043638-a00d-433a-88e3-0d59847c45f9}, !- Zone Air Exhaust Port List
  {210e9c7c-f5fd-4efd-bbe1-574a44864268}, !- Zone Air Node Name
  {346b7892-a333-4f96-8042-45c7e019c1fd}, !- Zone Return Air Port List
  ,                                       !- Primary Daylighting Control Name
  ,                                       !- Fraction of Zone Controlled by Primary Daylighting Control
  ,                                       !- Secondary Daylighting Control Name
  ,                                       !- Fraction of Zone Controlled by Secondary Daylighting Control
  ,                                       !- Illuminance Map Name
  {a38c92e9-506f-494f-98a3-b57a7fe98592}, !- Group Rendering Name
  {e4f99a07-3536-4b57-9268-07fc20f031d1}, !- Thermostat Name
  No,                                     !- Use Ideal Air Loads
  {8a48c35c-8d16-48ae-a2b9-43a6bc36a176}; !- Humidistat Name

OS:Node,
  {109ce31b-a1da-4915-b08f-915441e7f044}, !- Handle
  Node 1,                                 !- Name
  {210e9c7c-f5fd-4efd-bbe1-574a44864268}, !- Inlet Port
  ;                                       !- Outlet Port

OS:Connection,
  {210e9c7c-f5fd-4efd-bbe1-574a44864268}, !- Handle
  {d295ca2b-a8eb-45c7-a9bc-1c71f5d3db65}, !- Source Object
  11,                                     !- Outlet Port
  {109ce31b-a1da-4915-b08f-915441e7f044}, !- Target Object
  2;                                      !- Inlet Port

OS:PortList,
  {025d9671-a117-4328-a385-8599ea10e0a5}, !- Handle
  {d295ca2b-a8eb-45c7-a9bc-1c71f5d3db65}; !- HVAC Component

OS:PortList,
  {69043638-a00d-433a-88e3-0d59847c45f9}, !- Handle
  {d295ca2b-a8eb-45c7-a9bc-1c71f5d3db65}; !- HVAC Component

OS:PortList,
  {346b7892-a333-4f96-8042-45c7e019c1fd}, !- Handle
  {d295ca2b-a8eb-45c7-a9bc-1c71f5d3db65}; !- HVAC Component

OS:Sizing:Zone,
  {354a2da8-05f7-4e3d-81a4-9c83ae3dc172}, !- Handle
  {d295ca2b-a8eb-45c7-a9bc-1c71f5d3db65}, !- Zone or ZoneList Name
  SupplyAirTemperature,                   !- Zone Cooling Design Supply Air Temperature Input Method
  14,                                     !- Zone Cooling Design Supply Air Temperature {C}
  11.11,                                  !- Zone Cooling Design Supply Air Temperature Difference {deltaC}
  SupplyAirTemperature,                   !- Zone Heating Design Supply Air Temperature Input Method
  40,                                     !- Zone Heating Design Supply Air Temperature {C}
  11.11,                                  !- Zone Heating Design Supply Air Temperature Difference {deltaC}
  0.0085,                                 !- Zone Cooling Design Supply Air Humidity Ratio {kg-H2O/kg-air}
  0.008,                                  !- Zone Heating Design Supply Air Humidity Ratio {kg-H2O/kg-air}
  ,                                       !- Zone Heating Sizing Factor
  ,                                       !- Zone Cooling Sizing Factor
  DesignDay,                              !- Cooling Design Air Flow Method
  ,                                       !- Cooling Design Air Flow Rate {m3/s}
  ,                                       !- Cooling Minimum Air Flow per Zone Floor Area {m3/s-m2}
  ,                                       !- Cooling Minimum Air Flow {m3/s}
  ,                                       !- Cooling Minimum Air Flow Fraction
  DesignDay,                              !- Heating Design Air Flow Method
  ,                                       !- Heating Design Air Flow Rate {m3/s}
  ,                                       !- Heating Maximum Air Flow per Zone Floor Area {m3/s-m2}
  ,                                       !- Heating Maximum Air Flow {m3/s}
  ,                                       !- Heating Maximum Air Flow Fraction
  Yes,                                    !- Account for Dedicated Outdoor Air System
  NeutralSupplyAir,                       !- Dedicated Outdoor Air System Control Strategy
  autosize,                               !- Dedicated Outdoor Air Low Setpoint Temperature for Design {C}
  autosize;                               !- Dedicated Outdoor Air High Setpoint Temperature for Design {C}

OS:ZoneHVAC:EquipmentList,
  {9a4f2922-e7ff-40f8-a0a0-d72754bbdd53}, !- Handle
  Zone HVAC Equipment List 1,             !- Name
  {d295ca2b-a8eb-45c7-a9bc-1c71f5d3db65}, !- Thermal Zone
  ;                                       !- Load Distribution Scheme

OS:Rendering:Color,
  {a38c92e9-506f-494f-98a3-b57a7fe98592}, !- Handle
  Rendering Color 3,                      !- Name
  170,                                    !- Rendering Red Value
  68,                                     !- Rendering Green Value