
OS:Version,
  {3aa85fcc-d25c-469e-8c15-7e7e3f300953}, !- Handle
  3.2.0;                                  !- Version Identifier

OS:Site,
  {c5cd9834-f306-404b-8c33-230a0023bb69}, !- Handle
  Site 1,                                 !- Name
  41.77,                                  !- Latitude {deg}
  -87.75,                                 !- Longitude {deg}
  -6,                                     !- Time Zone {hr}
  190,                                    !- Elevation {m}
  ;                                       !- Terrain

OS:SimulationControl,
  {513ca73b-8824-4d7e-bfcd-fb26720c825e}, !- Handle
  Yes,                                    !- Do Zone Sizing Calculation
  Yes,                                    !- Do System Sizing Calculation
  No,                                     !- Do Plant Sizing Calculation
  No,                                     !- Run Simulation for Sizing Periods
  Yes,                                    !- Run Simulation for Weather File Run Periods
  ,                                       !- Loads Convergence Tolerance Value {W}
  ,                                       !- Temperature Convergence Tolerance Value {deltaC}
  ,                                       !- Solar Distribution
  ,                                       !- Maximum Number of Warmup Days
  ,                                       !- Minimum Number of Warmup Days
  No;                                     !- Do HVAC Sizing Simulation for Sizing Periods

OS:Timestep,
  {8a73a65e-a9eb-4370-b7f6-52158cd4b094}, !- Handle
  6;                                      !- Number of Timesteps per Hour

OS:Building,
  {2571e644-a807-4600-b8d4-ce606664936b}, !- Handle
  Building 1,                             !- Name
  ,                                       !- Building Sector Type
  ,                                       !- North Axis {deg}
  ,                                       !- Nominal Floor to Floor Height {m}
  ,                                       !- Space Type Name
  ,                                       !- Default Construction Set Name
  ;                                       !- Default Schedule Set Name

OS:ShadingSurface,
  {d294aa13-bc31-467b-879e-32a4be1ef2dd}, !- Handle
  Shading Surface 2,                      !- Name
  ,                                       !- Construction Name
  {df7ae6d8-3126-4557-9184-59a621e1cfeb}, !- Shading Surface Group Name
  ,                                       !- Transmittance Schedule Name
  ,                                       !- Number of Vertices
  4, -1, 2,                               !- X,Y,Z Vertex 1 {m}
  4, 0, 2,                                !- X,Y,Z Vertex 2 {m}
  2, 0, 2,                                !- X,Y,Z Vertex 3 {m}
  2, -1, 2;                               !- X,Y,Z Vertex 4 {m}

OS:ShadingSurfaceGroup,
  {df7ae6d8-3126-4557-9184-59a621e1cfeb}, !- Handle
  Shading Surface Group 1,                !- Name
  Building;                               !- Shading Surface Type

OS:ThermalZone,
  {eb814396-d17e-44a0-bdc4-3354b99e81da}, !- Handle
  Thermal Zone 1 Thermal Zone,            !- Name
  1,                                      !- Multiplier
  ,                                       !- Ceiling Height {m}
  ,                                       !- Volume {m3}
  ,                                       !- Floor Area {m2}
  ,                                       !- Zone Inside Convection Algorithm
  ,                                       !- Zone Outside Convection Algorithm
  ,                                       !- Zone Conditioning Equipment List Name
  {9d81ace6-9df6-4305-addd-6ab26d74440b}, !- Zone Air Inlet Port List
  {b803993c-40d1-4055-90a5-651f43b9d2a5}, !- Zone Air Exhaust Port List
  {7344e45a-7f09-430b-b021-cc4f2e575340}, !- Zone Air Node Name
  {589d3684-141d-4f0f-a45f-fd2196837eaf}, !- Zone Return Air Port List
  {cbee5d1b-29a7-4b19-b04b-b110b9ec87bc}, !- Primary Daylighting Control Name
  0.25,                                   !- Fraction of Zone Controlled by Primary Daylighting Control
  ,                                       !- Secondary Daylighting Control Name
  ,                                       !- Fraction of Zone Controlled by Secondary Daylighting Control
  ,                                       !- Illuminance Map Name
  {5d9f59dd-8e6f-408b-9901-8e9556d66d85}, !- Group Rendering Name
  {de1a8802-4f1e-429c-83e4-d1c3676919b8}, !- Thermostat Name
  No,                                     !- Use Ideal Air Loads
  {ff357263-772c-472a-aae2-4fa4080101e0}; !- Humidistat Name

OS:Node,
  {03f890be-4479-4ba6-a372-a8541ac229bc}, !- Handle
  Node 1,                                 !- Name
  {7344e45a-7f09-430b-b021-cc4f2e575340}, !- Inlet Port
  ;                                       !- Outlet Port

OS:Connection,
  {7344e45a-7f09-430b-b021-cc4f2e575340}, !- Handle
  {eb814396-d17e-44a0-bdc4-3354b99e81da}, !- Source Object
  11,                                     !- Outlet Port
  {03f890be-4479-4ba6-a372-a8541ac229bc}, !- Target Object
  2;                                      !- Inlet Port

OS:PortList,
  {9d81ace6-9df6-4305-addd-6ab26d74440b}, !- Handle
  {eb814396-d17e-44a0-bdc4-3354b99e81da}; !- HVAC Component

OS:PortList,
  {b803993c-40d1-4055-90a5-651f43b9d2a5}, !- Handle
  {eb814396-d17e-44a0-bdc4-3354b99e81da}; !- HVAC Component

OS:PortList,
  {589d3684-141d-4f0f-a45f-fd2196837eaf}, !- Handle
  {eb814396-d17e-44a0-bdc4-3354b99e81da}; !- HVAC Component

OS:Sizing:Zone,
  {e05af40e-74ed-4fbb-b5af-0207330a4399}, !- Handle
  {eb814396-d17e-44a0-bdc4-3354b99e81da}, !- Zone or ZoneList Name
  SupplyAirTemperature,                   !- Zone Cooling Design Supply Air Temperature Input Method
  14,                                     !- Zone Cooling Design Supply Air Temperature {C}
  11.11,                                  !- Zone Cooling Design Supply Air Temperature Difference {deltaC}
  SupplyAirTemperature,                   !- Zone Heating Design Supply Air Temperature Input Method
  40,                                     !- Zone Heating Design Supply Air Temperature {C}
  11.11,                                  !- Zone Heating Design Supply Air Temperature Difference {deltaC}
  0.0085,                                 !- Zone Cooling Design Supply Air Humidity Ratio {kg-H2O/kg-air}
  0.008,                                  !- Zone Heating Design Supply Air Humidity Ratio {kg-H2O/kg-air}
  ,                                       !- Zone Heating Sizing Factor
  ,                                       !- Zone Cooling Sizing Factor
  DesignDay,                              !- Cooling Design Air Flow Method
  0,                                      !- Cooling Design Air Flow Rate {m3/s}
  0.000762,                               !- Cooling Minimum Air Flow per Zone Floor Area {m3/s-m2}
  0,                                      !- Cooling Minimum Air Flow {m3/s}
  0,                                      !- Cooling Minimum Air Flow Fraction
  DesignDay,                              !- Heating Design Air Flow Method
  0,                                      !- Heating Design Air Flow Rate {m3/s}
  0.002032,                               !- Heating Maximum Air Flow per Zone Floor Area {m3/s-m2}
  0.1415762,                              !- Heating Maximum Air Flow {m3/s}
  0.3,                                    !- Heating Maximum Air Flow Fraction
  No,                                     !- Account for Dedicated Outdoor Air System
  NeutralSupplyAir,                       !- Dedicated Outdoor Air System Control Strategy
  autosize,                               !- Dedicated Outdoor Air Low Setpoint Temperature for Design {C}
  autosize;                               !- Dedicated Outdoor Air High Setpoint Temperature for Design {C}

OS:ZoneHVAC:EquipmentList,
  {013acc78-7b01-498e-9b64-5be2ae4c24c1}, !- Handle
  Zone HVAC Equipment List 1,             !- Name
  {eb814396-d17e-44a0-bdc4-3354b99e81da}; !- Thermal Zone

OS:Space,
  {cbe25ba1-2f63-4993-9262-50af87fc2922}, !- Handle
  Thermal Zone 1,                         !- Name
  {af127058-1ce0-4268-b911-02289f02bc7f}, !- Space Type Name
  ,                                       !- Default Construction Set Name
  ,                                       !- Default Schedule Set Name
  0,                                      !- Direction of Relative North {deg}
  0,                                      !- X Origin {m}
  0,                                      !- Y Origin {m}
  0,                                      !- Z Origin {m}
  ,                                       !- Building Story Name
  {eb814396-d17e-44a0-bdc4-3354b99e81da}, !- Thermal Zone Name
  Yes,                                    !- Part of Total Floor Area
  {1d70d129-d4ad-4311-91a9-441a59d97ba5}; !- Design Specification Outdoor Air Object Name

OS:ThermostatSetpoint:DualSetpoint,
  {de1a8802-4f1e-429c-83e4-d1c3676919b8}, !- Handle
  Thermostat Setpoint Dual Setpoint 1,    !- Name
  {ae2182cc-f0b7-454c-aafc-ba75f8aba455}, !- Heating Setpoint Temperature Schedule Name
  {76632a0f-11b7-41fe-b6d1-e65d8c7061de}, !- Cooling Setpoint Temperature Schedule Name
  0;                                      !- Temperature Difference Between Cutout And Setpoint {deltaC}

OS:Schedule:Year,
  {ae2182cc-f0b7-454c-aafc-ba75f8aba455}, !- Handle
  Medium Office Heating Setpoint Schedule, !- Name
  {895efda1-7a55-4218-a098-e60b1d6ce199}, !- Schedule Type Limits Name
  1,                                      !- Month 1
  3,                                      !- Day 1
  {f98b3d8d-b1a2-4550-8e8e-ebffaad9226c}, !- Week Schedule Until Date 1
  12,                                     !- Month 2
  31,                                     !- Day 2
  {c27d6ad4-1586-4fba-992d-73f6872df04e}; !- Week Schedule Until Date 2

OS:ScheduleTypeLimits,
  {895efda1-7a55-4218-a098-e60b1d6ce199}, !- Handle
  Temperature,                            !- Name
  -60,                                    !- Lower Limit Value
  200,                                    !- Upper Limit Value
  CONTINUOUS,                             !- Numeric Type
  temperature;                            !- Unit Type

OS:Schedule:Week,
  {f98b3d8d-b1a2-4550-8e8e-ebffaad9226c}, !- Handle
  Medium Office Heating Setpoint Schedule Week Rule - Jan1-Jan3, !- Name
  ,                                       !- Schedule Rendering Name
  {d4deb012-e5a2-498e-9f50-25fe04cb6290}, !- Sunday Schedule:Day Name
  {d4deb012-e5a2-498e-9f50-25fe04cb6290}, !- Monday Schedule:Day Name
  {d4deb012-e5a2-498e-9f50-25fe04cb6290}, !- Tuesday Schedule:Day Name
  {d4deb012-e5a2-498e-9f50-25fe04cb6290}, !- Wednesday Schedule:Day Name
  {d4deb012-e5a2-498e-9f50-25fe04cb6290}, !- Thursday Schedule:Day Name
  {d4deb012-e5a2-498e-9f50-25fe04cb6290}, !- Friday Schedule:Day Name
  {827a491e-ac40-4921-911b-a177d0547d61}, !- Saturday Schedule:Day Name
  {fdd55166-88cd-4a49-a13e-f6cddcaffc79}, !- Holiday Schedule:Day Name
  {fdd55166-88cd-4a49-a13e-f6cddcaffc79}, !- SummerDesignDay Schedule:Day Name
  {b48ac13c-2cda-4c85-83f2-bd0e79ce1d86}, !- WinterDesignDay Schedule:Day Name
  {fdd55166-88cd-4a49-a13e-f6cddcaffc79}, !- CustomDay1 Schedule:Day Name
  {fdd55166-88cd-4a49-a13e-f6cddcaffc79}; !- CustomDay2 Schedule:Day Name

OS:Schedule:Day,
  {d4deb012-e5a2-498e-9f50-25fe04cb6290}, !- Handle
  Medium Office Heating Setpoint Weekdays Schedule, !- Name
  {895efda1-7a55-4218-a098-e60b1d6ce199}, !- Schedule Type Limits Name
  ,                                       !- Interpolate to Timestep
  6,                                      !- Hour 1
  0,                                      !- Minute 1
  15.6,                                   !- Value Until Time 1
  22,                                     !- Hour 2
  0,                                      !- Minute 2
  21,                                     !- Value Until Time 2
  24,                                     !- Hour 3
  0,                                      !- Minute 3
  15.6;                                   !- Value Until Time 3

OS:Schedule:Day,
  {827a491e-ac40-4921-911b-a177d0547d61}, !- Handle
  Medium Office Heating Setpoint Saturday Schedule, !- Name
  {895efda1-7a55-4218-a098-e60b1d6ce199}, !- Schedule Type Limits Name
  ,                                       !- Interpolate to Timestep
  6,                                      !- Hour 1
  0,                                      !- Minute 1
  15.6,                                   !- Value Until Time 1
  18,                                     !- Hour 2
  0,                                      !- Minute 2
  21,                                     !- Value Until Time 2
  24,                                     !- Hour 3
  0,                                      !- Minute 3
  15.6;                                   !- Value Until Time 3

OS:Schedule:Day,
  {fdd55166-88cd-4a49-a13e-f6cddcaffc79}, !- Handle
  Medium Office Heating Setpoint All Other Days Schedule, !- Name
  {895efda1-7a55-4218-a098-e60b1d6ce199}, !- Schedule Type Limits Name
  ,                                       !- Interpolate to Timestep
  24,                                     !- Hour 1
  0,                                      !- Minute 1
  15.6;                                   !- Value Until Time 1

OS:Schedule:Day,
  {b48ac13c-2cda-4c85-83f2-bd0e79ce1d86}, !- Handle
  Medium Office Heating Setpoint Winter Design Day Schedule 1, !- Name
  {895efda1-7a55-4218-a098-e60b1d6ce199}, !- Schedule Type Limits Name
  ,                                       !- Interpolate to Timestep
  24,                                     !- Hour 1
  0,                                      !- Minute 1
  21;                                     !- Value Until Time 1

OS:YearDescription,
  {1b7e259b-eae1-49d9-82aa-2d486f6185d2}, !- Handle
  2009,                                   !- Calendar Year
  ,                                       !- Day of Week for Start Day
  ;                                       !- Is Leap Year

OS:Schedule:Week,
  {c27d6ad4-1586-4fba-992d-73f6872df04e}, !- Handle
  Medium Office Heating Setpoint Schedule Week Rule - Jan4-Dec31, !- Name
  ,                                       !- Schedule Rendering Name
  {fdd55166-88cd-4a49-a13e-f6cddcaffc79}, !- Sunday Schedule:Day Name
  {d4deb012-e5a2-498e-9f50-25fe04cb6290}, !- Monday Schedule:Day Name
  {d4deb012-e5a2-498e-9f50-25fe04cb6290}, !- Tuesday Schedule:Day Name
  {d4deb012-e5a2-498e-9f50-25fe04cb6290}, !- Wednesday Schedule:Day Name
  {d4deb012-e5a2-498e-9f50-25fe04cb6290}, !- Thursday Schedule:Day Name
  {d4deb012-e5a2-498e-9f50-25fe04cb6290}, !- Friday Schedule:Day Name
  {827a491e-ac40-4921-911b-a177d0547d61}, !- Saturday Schedule:Day Name
  {fdd55166-88cd-4a49-a13e-f6cddcaffc79}, !- Holiday Schedule:Day Name
  {fdd55166-88cd-4a49-a13e-f6cddcaffc79}, !- SummerDesignDay Schedule:Day Name
  {b48ac13c-2cda-4c85-83f2-bd0e79ce1d86}, !- WinterDesignDay Schedule:Day Name
  {fdd55166-88cd-4a49-a13e-f6cddcaffc79}, !- CustomDay1 Schedule:Day Name
  {fdd55166-88cd-4a49-a13e-f6cddcaffc79}; !- CustomDay2 Schedule:Day Name

OS:Schedule:Year,
  {76632a0f-11b7-41fe-b6d1-e65d8c7061de}, !- Handle
  Medium Office Cooling Setpoint Schedule, !- Name
  {895efda1-7a55-4218-a098-e60b1d6ce199}, !- Schedule Type Limits Name
  1,                                      !- Month 1
  3,                                      !- Day 1
  {98edc280-1429-409a-ac06-d6c6e4c23661}, !- Week Schedule Until Date 1
  12,                                     !- Month 2
  31,                                     !- Day 2
  {c2cf24bc-f893-4e46-afcb-036af5ac5b63}; !- Week Schedule Until Date 2

OS:Schedule:Week,
  {98edc280-1429-409a-ac06-d6c6e4c23661}, !- Handle
  Medium Office Cooling Setpoint Schedule Week Rule - Jan1-Jan3, !- Name
  ,                                       !- Schedule Rendering Name
  {ca5faa83-bd36-4356-9776-a87973a605d3}, !- Sunday Schedule:Day Name
  {ca5faa83-bd36-4356-9776-a87973a605d3}, !- Monday Schedule:Day Name
  {ca5faa83-bd36-4356-9776-a87973a605d3}, !- Tuesday Schedule:Day Name
  {ca5faa83-bd36-4356-9776-a87973a605d3}, !- Wednesday Schedule:Day Name
  {ca5faa83-bd36-4356-9776-a87973a605d3}, !- Thursday Schedule:Day Name
  {ca5faa83-bd36-4356-9776-a87973a605d3}, !- Friday Schedule:Day Name
  {ec4cce70-9199-43a0-8837-9a93d99873c4}, !- Saturday Schedule:Day Name
  {eded28d4-8397-49fc-8017-e1323b590e7e}, !- Holiday Schedule:Day Name
  {3cb8b8f4-416e-4662-b6cc-16f9c83e8f00}, !- SummerDesignDay Schedule:Day Name
  {eded28d4-8397-49fc-8017-e1323b590e7e}, !- WinterDesignDay Schedule:Day Name
  {eded28d4-8397-49fc-8017-e1323b590e7e}, !- CustomDay1 Schedule:Day Name
  {eded28d4-8397-49fc-8017-e1323b590e7e}; !- CustomDay2 Schedule:Day Name

OS:Schedule:Day,
  {ca5faa83-bd36-4356-9776-a87973a605d3}, !- Handle
  Medium Office Cooling Setpoint Weekdays Schedule, !- Name
  {895efda1-7a55-4218-a098-e60b1d6ce199}, !- Schedule Type Limits Name
  ,                                       !- Interpolate to Timestep
  6,                                      !- Hour 1
  0,                                      !- Minute 1
  26.7,                                   !- Value Until Time 1
  22,                                     !- Hour 2
  0,                                      !- Minute 2
  24,                                     !- Value Until Time 2
  24,                                     !- Hour 3
  0,                                      !- Minute 3
  26.7;                                   !- Value Until Time 3

OS:Schedule:Day,
  {ec4cce70-9199-43a0-8837-9a93d99873c4}, !- Handle
  Medium Office Cooling Setpoint Saturday Schedule, !- Name
  {895efda1-7a55-4218-a098-e60b1d6ce199}, !- Schedule Type Limits Name
  ,                                       !- Interpolate to Timestep
  6,                                      !- Hour 1
  0,                                      !- Minute 1
  26.7,                                   !- Value Until Time 1
  18,                                     !- Hour 2
  0,                                      !- Minute 2
  24,                                     !- Value Until Time 2
  24,                                     !- Hour 3
  0,                                      !- Minute 3
  26.7;                                   !- Value Until Time 3

OS:Schedule:Day,
  {eded28d4-8397-49fc-8017-e1323b590e7e}, !- Handle
  Medium Office Cooling Setpoint All Other Days Schedule, !- Name
  {895efda1-7a55-4218-a098-e60b1d6ce199}, !- Schedule Type Limits Name
  ,                                       !- Interpolate to Timestep
  24,                                     !- Hour 1
  0,                                      !- Minute 1
  26.7;                                   !- Value Until Time 1

OS:Schedule:Day,
  {3cb8b8f4-416e-4662-b6cc-16f9c83e8f00}, !- Handle
  Medium Office Cooling Setpoint Summer Design Day Schedule 1, !- Name
  {895efda1-7a55-4218-a098-e60b1d6ce199}, !- Schedule Type Limits Name
  ,                                       !- Interpolate to Timestep
  6,                                      !- Hour 1
  0,                                      !- Minute 1
  26.7,                                   !- Value Until Time 1
  22,                                     !- Hour 2
  0,                                      !- Minute 2
  24,                                     !- Value Until Time 2
  24,                                     !- Hour 3
  0,                                      !- Minute 3
  26.7;                                   !- Value Until Time 3

OS:Schedule:Week,
  {c2cf24bc-f893-4e46-afcb-036af5ac5b63}, !- Handle
  Medium Office Cooling Setpoint Schedule Week Rule - Jan4-Dec31, !- Name
  ,                                       !- Schedule Rendering Name
  {eded28d4-8397-49fc-8017-e1323b590e7e}, !- Sunday Schedule:Day Name
  {ca5faa83-bd36-4356-9776-a87973a605d3}, !- Monday Schedule:Day Name
  {ca5faa83-bd36-4356-9776-a87973a605d3}, !- Tuesday Schedule:Day Name
  {ca5faa83-bd36-4356-9776-a87973a605d3}, !- Wednesday Schedule:Day Name
  {ca5faa83-bd36-4356-9776-a87973a605d3}, !- Thursday Schedule:Day Name
  {ca5faa83-bd36-4356-9776-a87973a605d3}, !- Friday Schedule:Day Name
  {ec4cce70-9199-43a0-8837-9a93d99873c4}, !- Saturday Schedule:Day Name
  {eded28d4-8397-49fc-8017-e1323b590e7e}, !- Holiday Schedule:Day Name
  {3cb8b8f4-416e-4662-b6cc-16f9c83e8f00}, !- SummerDesignDay Schedule:Day Name
  {eded28d4-8397-49fc-8017-e1323b590e7e}, !- WinterDesignDay Schedule:Day Name
  {eded28d4-8397-49fc-8017-e1323b590e7e}, !- CustomDay1 Schedule:Day Name
  {eded28d4-8397-49fc-8017-e1323b590e7e}; !- CustomDay2 Schedule:Day Name

OS:Surface,
  {6d6919cf-2742-4132-a60a-4156af24c5e1}, !- Handle
  Surface 1,                              !- Name
  Floor,                                  !- Surface Type
  {3c782490-a82a-42d3-b414-217179e0e0a1}, !- Construction Name
  {cbe25ba1-2f63-4993-9262-50af87fc2922}, !- Space Name
  Ground,                                 !- Outside Boundary Condition
  ,                                       !- Outside Boundary Condition Object
  NoSun,                                  !- Sun Exposure
  NoWind,                                 !- Wind Exposure
  ,                                       !- View Factor to Ground
  ,                                       !- Number of Vertices
  10, 10, 0,                              !- X,Y,Z Vertex 1 {m}
  10, 0, 0,                               !- X,Y,Z Vertex 2 {m}
  0, 0, 0,                                !- X,Y,Z Vertex 3 {m}
  0, 10, 0;                               !- X,Y,Z Vertex 4 {m}

OS:Construction,
  {3c782490-a82a-42d3-b414-217179e0e0a1}, !- Handle
  Slab,                                   !- Name
  {ba672ab8-f42a-498b-aabe-f10133ce73b2}, !- Surface Rendering Name
  {54a52ac7-068c-41f1-9513-f711d9633cdb}, !- Layer 1
  {cfedb4e0-5868-45f5-b5ba-1f34dc523125}; !- Layer 2

OS:Material,
  {54a52ac7-068c-41f1-9513-f711d9633cdb}, !- Handle
  MAT-CC05 8 HW CONCRETE,                 !- Name
  Rough,                                  !- Roughness
  0.2032,                                 !- Thickness {m}
  1.311,                                  !- Conductivity {W/m-K}
  2240,                                   !- Density {kg/m3}
  836.8,                                  !- Specific Heat {J/kg-K}
  0.9,                                    !- Thermal Absorptance
  0.7,                                    !- Solar Absorptance
  0.7;                                    !- Visible Absorptance

OS:Material:NoMass,
  {cfedb4e0-5868-45f5-b5ba-1f34dc523125}, !- Handle
  CP02 CARPET PAD,                        !- Name
  VeryRough,                              !- Roughness
  0.2165,                                 !- Thermal Resistance {m2-K/W}
  0.9,                                    !- Thermal Absorptance
  0.7,                                    !- Solar Absorptance
  0.8;                                    !- Visible Absorptance

OS:Surface,
  {1dd727e3-dc4a-45b6-bfd8-c757cf9e5069}, !- Handle
  Surface 10,                             !- Name
  Wall,                                   !- Surface Type
  {fffdf4ac-9a4f-4b93-a40a-2624ccd5dc4d}, !- Construction Name
  {cbe25ba1-2f63-4993-9262-50af87fc2922}, !- Space Name
  Outdoors,                               !- Outside Boundary Condition
  ,                                       !- Outside Boundary Condition Object
  SunExposed,                             !- Sun Exposure
  WindExposed,                            !- Wind Exposure
  ,                                       !- View Factor to Ground
  ,                                       !- Number of Vertices
  10, 0, 3,                               !- X,Y,Z Vertex 1 {m}
  10, 0, 0,                               !- X,Y,Z Vertex 2 {m}
  20, 0, 0,                               !- X,Y,Z Vertex 3 {m}
  20, 0, 3;                               !- X,Y,Z Vertex 4 {m}

OS:Construction,
  {fffdf4ac-9a4f-4b93-a40a-2624ccd5dc4d}, !- Handle
  Exterior Wall,                          !- Name
  {26d6b2a2-0f3e-4dfa-a9bd-b643a014986b}, !- Surface Rendering Name
  {7f430b3b-6715-4bab-b2d4-6f0ee32ff5f0}, !- Layer 1
  {07385324-3f39-4a25-93b0-9ada54fca966}, !- Layer 2
  {83616f1e-f591-42b7-a8f7-e61a7833f95d}, !- Layer 3
  {45d01d61-84f4-4b0b-a715-0a4f1a011aec}, !- Layer 4
  {229b1bac-aa9a-4ee6-a976-616ce6766b6c}; !- Layer 5

OS:Material,
  {7f430b3b-6715-4bab-b2d4-6f0ee32ff5f0}, !- Handle
  M01 100mm brick,                        !- Name
  MediumRough,                            !- Roughness
  0.1016,                                 !- Thickness {m}
  0.89,                                   !- Conductivity {W/m-K}
  1920,                                   !- Density {kg/m3}
  790,                                    !- Specific Heat {J/kg-K}
  0.9,                                    !- Thermal Absorptance
  0.7,                                    !- Solar Absorptance
  0.7;                                    !- Visible Absorptance

OS:Material,
  {07385324-3f39-4a25-93b0-9ada54fca966}, !- Handle
  M15 200mm heavyweight concrete,         !- Name
  MediumRough,                            !- Roughness
  0.2032,                                 !- Thickness {m}
  1.95,                                   !- Conductivity {W/m-K}
  2240,                                   !- Density {kg/m3}
  900,                                    !- Specific Heat {J/kg-K}
  0.9,                                    !- Thermal Absorptance
  0.7,                                    !- Solar Absorptance
  0.7;                                    !- Visible Absorptance

OS:Material,
  {83616f1e-f591-42b7-a8f7-e61a7833f95d}, !- Handle
  I02 50mm insulation board,              !- Name
  MediumRough,                            !- Roughness
  0.0508,                                 !- Thickness {m}
  0.03,                                   !- Conductivity {W/m-K}
  43,                                     !- Density {kg/m3}
  1210,                                   !- Specific Heat {J/kg-K}
  0.9,                                    !- Thermal Absorptance
  0.7,                                    !- Solar Absorptance
  0.7;                                    !- Visible Absorptance

OS:Material:AirGap,
  {45d01d61-84f4-4b0b-a715-0a4f1a011aec}, !- Handle
  F04 Wall air space resistance,          !- Name
  0.15;                                   !- Thermal Resistance {m2-K/W}

OS:Material,
  {229b1bac-aa9a-4ee6-a976-616ce6766b6c}, !- Handle
  G01a 19mm gypsum board,                 !- Name
  MediumSmooth,                           !- Roughness
  0.019,                                  !- Thickness {m}
  0.16,                                   !- Conductivity {W/m-K}
  800,                                    !- Density {kg/m3}
  1090,                                   !- Specific Heat {J/kg-K}
  0.9,                                    !- Thermal Absorptance
  0.7,                                    !- Solar Absorptance
  0.7;                                    !- Visible Absorptance

OS:Surface,
  {616977ff-9be3-471f-8bdc-4bcf4b046449}, !- Handle
  Surface 11,                             !- Name
  RoofCeiling,                            !- Surface Type
  {dce89443-1557-4399-a040-e167d642c66d}, !- Construction Name
  {cbe25ba1-2f63-4993-9262-50af87fc2922}, !- Space Name
  Outdoors,                               !- Outside Boundary Condition
  ,                                       !- Outside Boundary Condition Object
  SunExposed,                             !- Sun Exposure
  WindExposed,                            !- Wind Exposure
  ,                                       !- View Factor to Ground
  ,                                       !- Number of Vertices
  20, 0, 3,                               !- X,Y,Z Vertex 1 {m}
  20, 10, 3,                              !- X,Y,Z Vertex 2 {m}
  10, 10, 3,                              !- X,Y,Z Vertex 3 {m}
  10, 0, 3;                               !- X,Y,Z Vertex 4 {m}

OS:Construction,
  {dce89443-1557-4399-a040-e167d642c66d}, !- Handle
  Exterior Roof,                          !- Name
  {8fa637be-9d87-4d2b-8448-a6852041b249}, !- Surface Rendering Name
  {ac335b31-91b2-40eb-bbf5-8c4f0313456f}, !- Layer 1
  {97d9c968-f35c-457f-95ab-7d8026821f57}, !- Layer 2
  {845677a6-fe57-49a0-9fbc-ab2b2cc0448d}; !- Layer 3

OS:Material,
  {ac335b31-91b2-40eb-bbf5-8c4f0313456f}, !- Handle
  M11 100mm lightweight concrete,         !- Name
  MediumRough,                            !- Roughness
  0.1016,                                 !- Thickness {m}
  0.53,                                   !- Conductivity {W/m-K}
  1280,                                   !- Density {kg/m3}
  840,                                    !- Specific Heat {J/kg-K}
  0.9,                                    !- Thermal Absorptance
  0.7,                                    !- Solar Absorptance
  0.7;                                    !- Visible Absorptance

OS:Material:AirGap,
  {97d9c968-f35c-457f-95ab-7d8026821f57}, !- Handle
  F05 Ceiling air space resistance,       !- Name
  0.18;                                   !- Thermal Resistance {m2-K/W}

OS:Material,
  {845677a6-fe57-49a0-9fbc-ab2b2cc0448d}, !- Handle
  F16 Acoustic tile,                      !- Name
  MediumSmooth,                           !- Roughness
  0.0191,                                 !- Thickness {m}
  0.06,                                   !- Conductivity {W/m-K}
  368,                                    !- Density {kg/m3}
  590,                                    !- Specific Heat {J/kg-K}
  0.9,                                    !- Thermal Absorptance
  0.7,                                    !- Solar Absorptance
  0.7;                                    !- Visible Absorptance

OS:Surface,
  {a98a51db-4359-4cf4-a859-44b594670bfc}, !- Handle
  Surface 13,                             !- Name
  Floor,                                  !- Surface Type
  {3c782490-a82a-42d3-b414-217179e0e0a1}, !- Construction Name
  {cbe25ba1-2f63-4993-9262-50af87fc2922}, !- Space Name